  0
SECTION
  2
ENTITIES
999
DXF created from EnergyPlus
999
Program Version,EnergyPlus, Version 9.0.1-bb7ca4f0da, YMD=2019.12.28 16:22
999
Polygon Action,TRIANGULATE3DFACE
999
Color Scheme,Default
999
Text - True North
  0
TEXT
  8
1
  6
Continuous
 62
  3
 10
      -19.08452
 20
        1.81030
 30
        0.10000
 40
 .25
  1
True North
 41
 0.0
  7
MONOTXT
210
0.0
220
0.0
230
1.0
999
Text - Building Title
  0
TEXT
  8
1
  6
Continuous
 62
  3
 10
      -22.08452
 20
       -2.18970
 30
        0.10000
 40
 .4
  1
Building - Building
 41
 0.0
  7
MONOTXT
210
0.0
220
0.0
230
1.0
999
North Arrow Stem
  0
3DFACE
  8
1
 62
  3
 10
      -18.08452
 20
        1.81030
 30
        0.10000
 11
      -18.08452
 21
        1.81030
 31
        0.00000
 12
      -18.08452
 22
       -1.18970
 32
        0.00000
 13
      -18.08452
 23
       -1.18970
 33
        0.10000
999
North Arrow Head 1
  0
3DFACE
  8
1
 62
  3
 10
      -18.08452
 20
        1.81030
 30
        0.10000
 11
      -18.08452
 21
        1.81030
 31
        0.00000
 12
      -18.58452
 22
        0.94428
 32
        0.00000
 13
      -18.58452
 23
        0.94428
 33
        0.10000
999
North Arrow Head 2
  0
3DFACE
  8
1
 62
  3
 10
      -18.08452
 20
        1.81030
 30
        0.10000
 11
      -18.08452
 21
        1.81030
 31
        0.00000
 12
      -17.58452
 22
        0.94428
 32
        0.00000
 13
      -17.58452
 23
        0.94428
 33
        0.10000
999
North Arrow Side 1
  0
3DFACE
  8
1
 62
  3
 10
      -18.58452
 20
        3.31030
 30
        0.10000
 11
      -18.58452
 21
        3.31030
 31
        0.00000
 12
      -18.58452
 22
        2.31030
 32
        0.00000
 13
      -18.58452
 23
        2.31030
 33
        0.10000
999
North Arrow Side 2
  0
3DFACE
  8
1
 62
  3
 10
      -18.58452
 20
        3.31030
 30
        0.10000
 11
      -18.58452
 21
        3.31030
 31
        0.00000
 12
      -17.58452
 22
        2.31030
 32
        0.00000
 13
      -17.58452
 23
        2.31030
 33
        0.10000
999
North Arrow Side 3
  0
3DFACE
  8
1
 62
  3
 10
      -17.58452
 20
        3.31030
 30
        0.10000
 11
      -17.58452
 21
        3.31030
 31
        0.00000
 12
      -17.58452
 22
        2.31030
 32
        0.00000
 13
      -17.58452
 23
        2.31030
 33
        0.10000
999
Zone Names
999
Zone=1:BLOCCO1_ZONA2
999
Zone=2:BLOCCO1_ZONA3
999
Zone=3:BLOCCO1_ZONA1
999
BLOCCO1:ZONA2:BLOCCO1:ZONA2_PARTITION_2_0_0
  0
3DFACE
  8
BLOCCO1_ZONA2
 62
 43
 10
       -0.08452
 20
       -1.18970
 30
        3.00000
 11
       -0.08452
 21
       -1.18970
 31
        0.00000
 12
       -0.08452
 22
        6.81030
 32
        0.00000
 13
       -0.08452
 23
        6.81030
 33
        3.00000
999
BLOCCO1:ZONA2:BLOCCO1:ZONA2_PARTITION_3_0_0
  0
3DFACE
  8
BLOCCO1_ZONA2
 62
 43
 10
       -0.08452
 20
        6.81030
 30
        3.00000
 11
       -0.08452
 21
        6.81030
 31
        0.00000
 12
       -8.08452
 22
        6.81030
 32
        0.00000
 13
       -8.08452
 23
        6.81030
 33
        3.00000
999
BLOCCO1:ZONA2:BLOCCO1:ZONA2_WALL_4_0_0
  0
3DFACE
  8
BLOCCO1_ZONA2
 62
 43
 10
       -8.08452
 20
        6.81030
 30
        3.00000
 11
       -8.08452
 21
        6.81030
 31
        0.00000
 12
       -8.08452
 22
       -1.18970
 32
        0.00000
 13
       -8.08452
 23
       -1.18970
 33
        3.00000
999
BLOCCO1:ZONA2:BLOCCO1:ZONA2_PARTITION_5_0_0
  0
3DFACE
  8
BLOCCO1_ZONA2
 62
 43
 10
       -8.08452
 20
       -1.18970
 30
        3.00000
 11
       -8.08452
 21
       -1.18970
 31
        0.00000
 12
       -0.08452
 22
       -1.18970
 32
        0.00000
 13
       -0.08452
 23
       -1.18970
 33
        3.00000
999
BLOCCO1:ZONA2:BLOCCO1:ZONA2_FLOOR_0_0_0
  0
3DFACE
  8
BLOCCO1_ZONA2
 62
  8
 10
       -0.08452
 20
        6.81030
 30
        0.00000
 11
       -0.08452
 21
       -1.18970
 31
        0.00000
 12
       -8.08452
 22
       -1.18970
 32
        0.00000
 13
       -8.08452
 23
        6.81030
 33
        0.00000
999
BLOCCO1:ZONA2:BLOCCO1:ZONA2_ROOF_1_0_0
  0
3DFACE
  8
BLOCCO1_ZONA2
 62
 15
 10
       -8.08452
 20
        6.81030
 30
        3.00000
 11
       -8.08452
 21
       -1.18970
 31
        3.00000
 12
       -0.08452
 22
       -1.18970
 32
        3.00000
 13
       -0.08452
 23
        6.81030
 33
        3.00000
999
BLOCCO1:ZONA3:BLOCCO1:ZONA3_PARTITION_4_0_10001
  0
3DFACE
  8
BLOCCO1_ZONA3
 62
 43
 10
       -0.08452
 20
        6.81030
 30
        3.00000
 11
       -0.08452
 21
        6.81030
 31
        0.00000
 12
       -0.08452
 22
       -1.18970
 32
        0.00000
 13
       -0.08452
 23
       -1.18970
 33
        3.00000
999
BLOCCO1:ZONA3:BLOCCO1:ZONA3_PARTITION_2_0_0
  0
3DFACE
  8
BLOCCO1_ZONA3
 62
 43
 10
        1.91548
 20
       -1.18970
 30
        3.00000
 11
        1.91548
 21
       -1.18970
 31
        0.00000
 12
        1.91548
 22
        6.81030
 32
        0.00000
 13
        1.91548
 23
        6.81030
 33
        3.00000
999
BLOCCO1:ZONA3:BLOCCO1:ZONA3_PARTITION_3_0_0
  0
3DFACE
  8
BLOCCO1_ZONA3
 62
 43
 10
        1.91548
 20
        6.81030
 30
        3.00000
 11
        1.91548
 21
        6.81030
 31
        0.00000
 12
       -0.08452
 22
        6.81030
 32
        0.00000
 13
       -0.08452
 23
        6.81030
 33
        3.00000
999
BLOCCO1:ZONA3:BLOCCO1:ZONA3_PARTITION_5_0_0
  0
3DFACE
  8
BLOCCO1_ZONA3
 62
 43
 10
       -0.08452
 20
       -1.18970
 30
        3.00000
 11
       -0.08452
 21
       -1.18970
 31
        0.00000
 12
        1.91548
 22
       -1.18970
 32
        0.00000
 13
        1.91548
 23
       -1.18970
 33
        3.00000
999
BLOCCO1:ZONA3:BLOCCO1:ZONA3_FLOOR_0_0_0
  0
3DFACE
  8
BLOCCO1_ZONA3
 62
  8
 10
        1.91548
 20
        6.81030
 30
        0.00000
 11
        1.91548
 21
       -1.18970
 31
        0.00000
 12
       -0.08452
 22
       -1.18970
 32
        0.00000
 13
       -0.08452
 23
        6.81030
 33
        0.00000
999
BLOCCO1:ZONA3:BLOCCO1:ZONA3_ROOF_1_0_0
  0
3DFACE
  8
BLOCCO1_ZONA3
 62
 15
 10
       -0.08452
 20
        6.81030
 30
        3.00000
 11
       -0.08452
 21
       -1.18970
 31
        3.00000
 12
        1.91548
 22
       -1.18970
 32
        3.00000
 13
        1.91548
 23
        6.81030
 33
        3.00000
999
BLOCCO1:ZONA1:BLOCCO1:ZONA1_PARTITION_4_0_10006
  0
3DFACE
  8
BLOCCO1_ZONA1
 62
 43
 10
        1.91548
 20
        6.81030
 30
        3.00000
 11
        1.91548
 21
        6.81030
 31
        0.00000
 12
        1.91548
 22
       -1.18970
 32
        0.00000
 13
        1.91548
 23
       -1.18970
 33
        3.00000
999
BLOCCO1:ZONA1:BLOCCO1:ZONA1_WALL_2_0_0
  0
3DFACE
  8
BLOCCO1_ZONA1
 62
 43
 10
        9.91548
 20
       -1.18970
 30
        3.00000
 11
        9.91548
 21
       -1.18970
 31
        0.00000
 12
        9.91548
 22
        6.81030
 32
        0.00000
 13
        9.91548
 23
        6.81030
 33
        3.00000
999
BLOCCO1:ZONA1:BLOCCO1:ZONA1_PARTITION_3_0_0
  0
3DFACE
  8
BLOCCO1_ZONA1
 62
 43
 10
        9.91548
 20
        6.81030
 30
        3.00000
 11
        9.91548
 21
        6.81030
 31
        0.00000
 12
        1.91548
 22
        6.81030
 32
        0.00000
 13
        1.91548
 23
        6.81030
 33
        3.00000
999
BLOCCO1:ZONA1:BLOCCO1:ZONA1_PARTITION_5_0_0
  0
3DFACE
  8
BLOCCO1_ZONA1
 62
 43
 10
        1.91548
 20
       -1.18970
 30
        3.00000
 11
        1.91548
 21
       -1.18970
 31
        0.00000
 12
        9.91548
 22
       -1.18970
 32
        0.00000
 13
        9.91548
 23
       -1.18970
 33
        3.00000
999
BLOCCO1:ZONA1:BLOCCO1:ZONA1_FLOOR_0_0_0
  0
3DFACE
  8
BLOCCO1_ZONA1
 62
  8
 10
        9.91548
 20
        6.81030
 30
        0.00000
 11
        9.91548
 21
       -1.18970
 31
        0.00000
 12
        1.91548
 22
       -1.18970
 32
        0.00000
 13
        1.91548
 23
        6.81030
 33
        0.00000
999
BLOCCO1:ZONA1:BLOCCO1:ZONA1_ROOF_1_0_0
  0
3DFACE
  8
BLOCCO1_ZONA1
 62
 15
 10
        1.91548
 20
        6.81030
 30
        3.00000
 11
        1.91548
 21
       -1.18970
 31
        3.00000
 12
        9.91548
 22
       -1.18970
 32
        3.00000
 13
        9.91548
 23
        6.81030
 33
        3.00000
999
BLOCCO1:ZONA2:DayRefPt:1
  0
CIRCLE
  8
BLOCCO1_ZONA2
 62
 10
 10
       -4.08500
 20
        2.81000
 30
        0.90000
 40
        0.20000
999
BLOCCO1:ZONA3:DayRefPt:1
  0
CIRCLE
  8
BLOCCO1_ZONA3
 62
 10
 10
        0.91500
 20
        2.81000
 30
        0.90000
 40
        0.20000
999
BLOCCO1:ZONA1:DayRefPt:1
  0
CIRCLE
  8
BLOCCO1_ZONA1
 62
 10
 10
        5.91500
 20
        2.81000
 30
        0.90000
 40
        0.20000
999
BLOCCO1:ZONA2:DEDayRefPt:1
  0
CIRCLE
  8
BLOCCO1_ZONA2
 62
 10
 10
       -4.08500
 20
        2.81000
 30
        0.90000
 40
        0.20000
999
BLOCCO1:ZONA3:DEDayRefPt:1
  0
CIRCLE
  8
BLOCCO1_ZONA3
 62
 10
 10
        0.91500
 20
        2.81000
 30
        0.90000
 40
        0.20000
999
BLOCCO1:ZONA1:DEDayRefPt:1
  0
CIRCLE
  8
BLOCCO1_ZONA1
 62
 10
 10
        5.91500
 20
        2.81000
 30
        0.90000
 40
        0.20000
  0
ENDSEC
  0
EOF
